tests/data/power_flow/non-floating-ground-no-error/linear/zigzag_n-wye/asym_output.json
{
  "version": "1.0",
  "type": "asym_output",
  "is_batch": false,
  "attributes": {},
  "data": {
    "node": [
      {"id": 1, "energized": 1, "u_pu": [0.99999999999569433, 0.99999999999252942, 0.99999999999255862], "u": [5773.5026918713984, 5773.5026918531266, 5773.5026918532949], "u_angle": [7.4628019657913191e-14, -2.0943951023949143, 2.0943951023951146], "p": [997.28541385195365, 2166.0392926626491, 1301.7429737775717], "q": [1032.4515637470902, 1355.6746219212803, 2206.2336426590864]},
      {"id": 2, "energized": 1, "u_pu": [1.3142756138609242, 1.317739979061278, 0.49670473770853601], "u": [75.879737945196524, 76.079753163296061, 28.677261402378573], "u_angle": [-0.85963987905926709, -2.2903346115490741, 1.5654617674911755], "p": [-1727.3203891895521, -1736.4386524164361, -986.8623858484201], "q": [-1727.3203891895446, -1736.43865241652, -986.86238584840896]}
    ],
    "transformer": [
      {"id": 4, "energized": 1, "loading": 0.065524008642340884, "p_from": [997.28541385195365, 2166.0392926626491, 1301.7429737775717], "q_from": [1032.4515637470902, 1355.6746219212803, 2206.2336426590864], "i_from": [0.24862830258339969, 0.44259168195903137, 0.44368913630641399], "s_from": [1435.4561742406747, 2555.3042671822695, 2561.6404228111442], "p_to": [-1727.3203891895521, -1736.4386524164361, -986.8623858484201], "q_to": [-1727.3203891895446, -1736.43865241652, -986.86238584840896], "i_to": [32.193046353424727, 32.277905623660331, 48.666926408354335], "s_to": [2442.7999209554323, 2455.6950924762436, 1395.634170262698]}
    ],
    "source": [
      {"id": 3, "energized": 1, "p": [997.28541385195365, 2166.0392926626491, 1301.7429737775717], "q": [1032.4515637470902, 1355.6746219212803, 2206.2336426590864], "i": [0.24862830258339969, 0.44259168195903137, 0.44368913630641399], "s": [1435.4561742406747, 2555.3042671822695, 2561.6404228111442], "pf": [0.69475155824906742, 0.84766394377415477, 0.50816772025678725]}
    ],
    "asym_load": [
      {"id": 21, "energized": 1, "p": [1727.3203891895087, 1736.4386524164174, 986.86238584842226], "q": [1727.3203891895087, 1736.4386524164174, 986.86238584842226], "i": [32.193046353423981, 32.277905623659215, 48.666926408354719], "s": [2442.7999209553764, 2455.6950924761586, 1395.6341702627089], "pf": [0.70710678118654746, 0.70710678118654746, 0.70710678118654757]}
    ]
  }
}